examples/application_mpc/case_topo/case_topology.m

function mpc = case_topology
%% MATPOWER Case Format : Version 2
mpc.version = '2';

%%-----  Power Flow Data  -----%%
%% system MVA base
mpc.baseMVA = 100;

%% bus data
% bus_i type  Pd     Qd     Gs  Bs area  Vm Va baseKV zone Vmax Vmin
mpc.bus = [
1  3  0.000000  0.000000  0  0  1  1.0  0.0  20  1  1.1  0.9;
2  3  0.000000  0.000000  0  0  1  1.0  0.0  20  1  1.1  0.9;
3  3  0.000000  0.000000  0  0  1  1.0  0.0  20  1  1.1  0.9;
4  3  0.000000  0.000000  0  0  1  1.0  0.0  20  1  1.1  0.9;
5  3  0.000000  0.000000  0  0  1  1.0  0.0  20  1  1.1  0.9;
6  3  0.000000  0.000000  0  0  1  1.0  0.0  20  1  1.1  0.9;
7  3  0.000000  0.000000  0  0  1  1.0  0.0  20  1  1.1  0.9;
8  3  0.000000  0.000000  0  0  1  1.0  0.0  20  1  1.1  0.9;
9  3  0.000000  0.000000  0  0  1  1.0  0.0  20  1  1.1  0.9;
10  3  0.000000  0.000000  0  0  1  1.0  0.0  20  1  1.1  0.9;
11  3  0.000000  0.000000  0  0  1  1.0  0.0  20  1  1.1  0.9;
12  3  0.000000  0.000000  0  0  1  1.0  0.0  20  1  1.1  0.9;
13  3  0.000000  0.000000  0  0  1  1.0  0.0  20  1  1.1  0.9;
14  3  0.000000  0.000000  0  0  1  1.0  0.0  20  1  1.1  0.9;
15  3  0.000000  0.000000  0  0  1  1.0  0.0  20  1  1.1  0.9;
16  3  0.000000  0.000000  0  0  1  1.0  0.0  20  1  1.1  0.9;
17  3  0.000000  0.000000  0  0  1  1.0  0.0  20  1  1.1  0.9;
18  3  0.000000  0.000000  0  0  1  1.0  0.0  20  1  1.1  0.9;
19  3  0.172229  0.034973  0  0  1  1.0  0.0  20  1  1.1  0.9;
20  3  0.324263  0.065844  0  0  1  1.0  0.0  20  1  1.1  0.9;
21  3  0.257352  0.052257  0  0  1  1.0  0.0  20  1  1.1  0.9;
22  3  0.205881  0.041806  0  0  1  1.0  0.0  20  1  1.1  0.9;
23  3  0.324263  0.065844  0  0  1  1.0  0.0  20  1  1.1  0.9;
24  3  0.344457  0.069945  0  0  1  1.0  0.0  20  1  1.1  0.9;
25  3  0.324263  0.065844  0  0  1  1.0  0.0  20  1  1.1  0.9;
26  3  0.172229  0.034973  0  0  1  1.0  0.0  20  1  1.1  0.9;
27  3  0.324263  0.065844  0  0  1  1.0  0.0  20  1  1.1  0.9;
28  3  0.205881  0.041806  0  0  1  1.0  0.0  20  1  1.1  0.9;
29  3  0.324263  0.065844  0  0  1  1.0  0.0  20  1  1.1  0.9;
30  3  0.195508  0.039700  0  0  1  1.0  0.0  20  1  1.1  0.9;
31  3  0.324263  0.065844  0  0  1  1.0  0.0  20  1  1.1  0.9;
32  3  0.172229  0.034973  0  0  1  1.0  0.0  20  1  1.1  0.9;
33  3  0.002851  0.000579  0  0  1  1.0  0.0  20  1  1.1  0.9;
];

%% branch data
% fbus tbus r x b rateA rateB rateC ratio angle status angmin angmax
mpc.branch = [
7  1  0.173272  0.128350  16.128920  9900  0  0  0  0  1  -360  360;
7  9  0.127548  0.066494  9.875153  9900  0  0  0  0  1  -360  360;
20  9  0.878166  0.457812  67.990390  9900  0  0  0  0  1  -360  360;
12  19  0.151316  0.078885  11.715360  9900  0  0  0  0  1  -360  360;
24  12  0.144959  0.075571  11.223210  9900  0  0  0  0  1  -360  360;
30  20  0.168210  0.087692  13.023350  9900  0  0  0  0  1  -360  360;
21  25  0.374296  0.195131  28.979150  9900  0  0  0  0  1  -360  360;
10  21  0.358452  0.186870  27.752450  9900  0  0  0  0  1  -360  360;
15  10  0.043819  0.029571  4.729454  9900  0  0  0  0  1  -360  360;
15  2  0.041739  0.021760  3.231552  9900  0  0  0  0  1  -360  360;
2  3  0.052618  0.027431  4.073842  9900  0  0  0  0  1  -360  360;
3  8  0.014437  0.007526  1.117763  9900  0  0  0  0  1  -360  360;
32  8  0.055938  0.029162  4.330907  9900  0  0  0  0  1  -360  360;
27  22  0.307819  0.160474  23.832320  9900  0  0  0  0  1  -360  360;
22  31  0.210770  0.109880  16.318510  9900  0  0  0  0  1  -360  360;
23  27  0.237155  0.123635  18.361270  9900  0  0  0  0  1  -360  360;
29  23  0.230609  0.120223  17.854480  9900  0  0  0  0  1  -360  360;
24  6  0.131136  0.068365  10.152970  9900  0  0  0  0  1  -360  360;
5  6  0.167381  0.087260  12.959140  9900  0  0  0  0  1  -360  360;
4  5  0.076274  0.039763  5.905337  9900  0  0  0  0  1  -360  360;
26  4  0.016898  0.008809  1.308271  9900  0  0  0  0  1  -360  360;
25  13  0.060996  0.031799  4.722534  9900  0  0  0  0  1  -360  360;
13  14  0.003561  0.002638  0.331482  9900  0  0  0  0  1  -360  360;
14  33  0.233950  0.121964  18.113110  9900  0  0  0  0  1  -360  360;
32  26  0.057197  0.029818  4.428339  9900  0  0  0  0  1  -360  360;
28  30  0.250108  0.130388  19.364130  9900  0  0  0  0  1  -360  360;
18  28  0.007252  0.003781  0.561506  9900  0  0  0  0  1  -360  360;
17  18  0.001224  0.000907  0.113935  9900  0  0  0  0  1  -360  360;
31  17  0.023150  0.012069  1.792355  9900  0  0  0  0  1  -360  360;
11  29  0.302220  0.157555  23.398820  9900  0  0  0  0  1  -360  360;
16  11  0.004676  0.002438  0.362053  9900  0  0  0  0  1  -360  360;
33  16  0.235101  0.122565  18.202280  9900  0  0  0  0  1  -360  360;
];

%% generator data
% bus Pg Qg Qmax Qmin Vg mBase status Pmax Pmin Pc1 Pc2 Qc1min Qc1max Qc2min Qc2max ramp_agc ramp_10 ramp_30 ramp_q apf
mpc.gen = [
19  0.009999  0  100  -100  1.0  100  1  0.010000  0  0  0  0  0  0  0  0  0  0  0  0;
20  0.007999  0  100  -100  1.0  100  1  0.008000  0  0  0  0  0  0  0  0  0  0  0  0;
22  0.024998  0  100  -100  1.0  100  1  0.025000  0  0  0  0  0  0  0  0  0  0  0  0;
23  0.040997  0  100  -100  1.0  100  1  0.041000  0  0  0  0  0  0  0  0  0  0  0  0;
25  0.062996  0  100  -100  1.0  100  1  0.063000  0  0  0  0  0  0  0  0  0  0  0  0;
27  0.013999  0  100  -100  1.0  100  1  0.014000  0  0  0  0  0  0  0  0  0  0  0  0;
28  0.009999  0  100  -100  1.0  100  1  0.010000  0  0  0  0  0  0  0  0  0  0  0  0;
29  0.023998  0  100  -100  1.0  100  1  0.024000  0  0  0  0  0  0  0  0  0  0  0  0;
31  0.019999  0  100  -100  1.0  100  1  0.020000  0  0  0  0  0  0  0  0  0  0  0  0;
];

%% generator cost data
% 1 startup shutdown n x1 y1 ... xn yn
mpc.gencost = [
2 0 0 3 0.02 2 0;
];
